ucte/ucte-converter/src/test/resources/networku.xiidm
<?xml version="1.0" encoding="UTF-8"?>
<iidm:network xmlns:iidm="http://www.powsybl.org/schema/iidm/1_12" id="sim1" caseDate="2013-01-15T18:45:00.000+01:00" forecastDistance="0" sourceFormat="test" minimumValidationLevel="STEADY_STATE_HYPOTHESIS">
    <iidm:substation id="P1" country="FR" tso="RTE" geographicalTags="A">
        <iidm:voltageLevel id="VLGEN" nominalV="27.0" topologyKind="BUS_BREAKER">
            <iidm:busBreakerTopology>
                <iidm:bus id="FV0___7_"/>
            </iidm:busBreakerTopology>
            <iidm:generator id="FV1___7_" energySource="OTHER" minP="-9999.99" maxP="9999.99" voltageRegulatorOn="true" targetP="607.0" targetV="24.5" targetQ="301.0" bus="FV0___7_" connectableBus="FV0___7_">
                <iidm:minMaxReactiveLimits minQ="-9999.99" maxQ="9999.99"/>
            </iidm:generator>
        </iidm:voltageLevel>
        <iidm:voltageLevel id="VLHV1" nominalV="380.0" topologyKind="BUS_BREAKER">
            <iidm:busBreakerTopology>
                <iidm:bus id="FV2___1_"/>
            </iidm:busBreakerTopology>
        </iidm:voltageLevel>
        <iidm:twoWindingsTransformer id="FV0___7_ FV2___1_ 1" r="0.26658461538461536" x="11.104492831516762" g="0.0" b="0.0" ratedU1="24.0" ratedU2="400.0" voltageLevelId1="VLGEN" bus1="FV0___7_" connectableBus1="FV0___7_" voltageLevelId2="VLHV1" bus2="FV2___1_" connectableBus2="FV2___1_"/>
    </iidm:substation>
    <iidm:substation id="P2" country="FR" tso="RTE" geographicalTags="B">
        <iidm:voltageLevel id="VLHV2" nominalV="380.0" topologyKind="BUS_BREAKER">
            <iidm:busBreakerTopology>
                <iidm:bus id="FV3___1_"/>
            </iidm:busBreakerTopology>
        </iidm:voltageLevel>
        <iidm:voltageLevel id="VLLOAD" nominalV="150.0" topologyKind="BUS_BREAKER">
            <iidm:busBreakerTopology>
                <iidm:bus id="FV4___3_"/>
            </iidm:busBreakerTopology>
            <iidm:load id="FV5___3_" loadType="UNDEFINED" p0="600.0" q0="200.0" bus="FV4___3_" connectableBus="FV4___3_"/>
        </iidm:voltageLevel>
        <iidm:twoWindingsTransformer id="FV3___1_ FV4___3_ 1" r="0.04724999999999999" x="4.049724365620455" g="0.0" b="0.0" ratedU1="400.0" ratedU2="158.0" voltageLevelId1="VLHV2" bus1="FV3___1_" connectableBus1="FV3___1_" voltageLevelId2="VLLOAD" bus2="FV4___3_" connectableBus2="FV4___3_">
            <iidm:ratioTapChanger regulating="true" lowTapPosition="0" tapPosition="1" targetDeadband="0.0" loadTapChangingCapabilities="true" regulationMode="VOLTAGE" regulationValue="158.0">
                <iidm:terminalRef id="FV3___1_ FV4___3_ 1" side="TWO"/>
                <iidm:step r="0.0" x="0.0" g="0.0" b="0.0" rho="0.8505666905244191"/>
                <iidm:step r="0.0" x="0.0" g="0.0" b="0.0" rho="1.0006666666666666"/>
                <iidm:step r="0.0" x="0.0" g="0.0" b="0.0" rho="1.150766642808914"/>
            </iidm:ratioTapChanger>
        </iidm:twoWindingsTransformer>
    </iidm:substation>
    <iidm:line id="FV2___1_ FV3___1_ 1" r="3.0" x="33.0" g1="0.0" b1="1.93E-4" g2="0.0" b2="1.93E-4" voltageLevelId1="VLHV1" bus1="FV2___1_" connectableBus1="FV2___1_" voltageLevelId2="VLHV2" bus2="FV3___1_" connectableBus2="FV3___1_"/>
    <iidm:line id="FV2___1_ FV3___1_ 2" r="3.0" x="33.0" g1="0.0" b1="1.93E-4" g2="0.0" b2="1.93E-4" voltageLevelId1="VLHV1" bus1="FV2___1_" connectableBus1="FV2___1_" voltageLevelId2="VLHV2" bus2="FV3___1_" connectableBus2="FV3___1_"/>
</iidm:network>